[Format]      =  4.0
[Frequency]   =  150000
[Precision]   =  1e-008
[MinAngle]    =  30
[DoSmartMesh] =  1
[Depth]       =  1
[LengthUnits] =  millimeters
[ProblemType] =  axisymmetric
[Coordinates] =  cartesian
[ACSolver]    =  0
[PrevType]    =  0
[PrevSoln]    =  ""
[Comment]     =  "Add comments here."
[PointProps]   = 0
[BdryProps]   = 0
[BlockProps]  = 8
  <BeginBlock>
    <BlockName> = "litz_primary1"
    <Mu_x> = 1
    <Mu_y> = 1
    <H_c> = 0
    <H_cAngle> = 0
    <J_re> = 0
    <J_im> = 0
    <Sigma> = 58
    <d_lam> = 0
    <Phi_h> = 0
    <Phi_hx> = 0
    <Phi_hy> = 0
    <LamType> = 5
    <LamFill> = 1
    <NStrands> = 2240
    <WireD> = 0.050000000000000003
    <BHPoints> = 0
  <EndBlock>
  <BeginBlock>
    <BlockName> = "litz_secondary1"
    <Mu_x> = 1
    <Mu_y> = 1
    <H_c> = 0
    <H_cAngle> = 0
    <J_re> = 0
    <J_im> = 0
    <Sigma> = 58
    <d_lam> = 0
    <Phi_h> = 0
    <Phi_hx> = 0
    <Phi_hy> = 0
    <LamType> = 5
    <LamFill> = 1
    <NStrands> = 540
    <WireD> = 0.050000000000000003
    <BHPoints> = 0
  <EndBlock>
  <BeginBlock>
    <BlockName> = "Ferrite"
    <Mu_x> = 2200
    <Mu_y> = 2200
    <H_c> = 0
    <H_cAngle> = 0
    <J_re> = 0
    <J_im> = 0
    <Sigma> = 0
    <d_lam> = 0
    <Phi_h> = 0
    <Phi_hx> = 0
    <Phi_hy> = 0
    <LamType> = 0
    <LamFill> = 1
    <NStrands> = 0
    <WireD> = 0
    <BHPoints> = 0
  <EndBlock>
  <BeginBlock>
    <BlockName> = "Air"
    <Mu_x> = 1
    <Mu_y> = 1
    <H_c> = 0
    <H_cAngle> = 0
    <J_re> = 0
    <J_im> = 0
    <Sigma> = 0
    <d_lam> = 0
    <Phi_h> = 0
    <Phi_hx> = 0
    <Phi_hy> = 0
    <LamType> = 0
    <LamFill> = 1
    <NStrands> = 0
    <WireD> = 0
    <BHPoints> = 0
  <EndBlock>
  <BeginBlock>
    <BlockName> = "bad_litz_secondary1"
    <Mu_x> = 1
    <Mu_y> = 1
    <H_c> = 0
    <H_cAngle> = 0
    <J_re> = 0
    <J_im> = 0
    <Sigma> = 58
    <d_lam> = 0
    <Phi_h> = 0
    <Phi_hx> = 0
    <Phi_hy> = 0
    <LamType> = 3
    <LamFill> = 1
    <NStrands> = 1
    <WireD> = 0.070999999999999994
    <BHPoints> = 0
  <EndBlock>
  <BeginBlock>
    <BlockName> = "litz_primary2"
    <Mu_x> = 1
    <Mu_y> = 1
    <H_c> = 0
    <H_cAngle> = 0
    <J_re> = 0
    <J_im> = 0
    <Sigma> = 58
    <d_lam> = 0
    <Phi_h> = 0
    <Phi_hx> = 0
    <Phi_hy> = 0
    <LamType> = 5
    <LamFill> = 1
    <NStrands> = 1120
    <WireD> = 0.070999999999999994
    <BHPoints> = 0
  <EndBlock>
  <BeginBlock>
    <BlockName> = "litz_secondary2"
    <Mu_x> = 1
    <Mu_y> = 1
    <H_c> = 0
    <H_cAngle> = 0
    <J_re> = 0
    <J_im> = 0
    <Sigma> = 58
    <d_lam> = 0
    <Phi_h> = 0
    <Phi_hx> = 0
    <Phi_hy> = 0
    <LamType> = 5
    <LamFill> = 1
    <NStrands> = 270
    <WireD> = 0.070999999999999994
    <BHPoints> = 0
  <EndBlock>
  <BeginBlock>
    <BlockName> = "litz_primary3"
    <Mu_x> = 1
    <Mu_y> = 1
    <H_c> = 0
    <H_cAngle> = 0
    <J_re> = 0
    <J_im> = 0
    <Sigma> = 58
    <d_lam> = 0
    <Phi_h> = 0
    <Phi_hx> = 0
    <Phi_hy> = 0
    <LamType> = 5
    <LamFill> = 1
    <NStrands> = 810
    <WireD> = 0.070999999999999994
    <BHPoints> = 0
  <EndBlock>
[CircuitProps]  = 2
  <BeginCircuit>
    <CircuitName> = "SEC"
    <TotalAmps_re> = 8.4000000000000004
    <TotalAmps_im> = 0
    <CircuitType> = 1
  <EndCircuit>
  <BeginCircuit>
    <CircuitName> = "PRI"
    <TotalAmps_re> = 33.600000000000001
    <TotalAmps_im> = 0
    <CircuitType> = 1
  <EndCircuit>
[NumPoints] = 36
0	0.40000000000000002	0	0
0	200	0	0
0	-200	0	0
6.5	14	0	0
19.5	20	0	0
0	20	0	0
0	-20	0	0
19.5	-20	0	0
15	14	0	0
6.5	-14	0	0
15	-14	0	0
19.5	0	0	0
15	0	0	0
6.5	0.40000000000000002	0	0
7.5	13	0	0
7.5	-13	0	0
14.5	13	0	0
14.5	-13	0	0
8.25	-9	0	1
8.25	12.5	0	1
11	12.5	0	1
11	-9	0	1
13.5	9	0	2
13.5	-12.5	0	2
11.5	9	0	2
11.5	-12.5	0	2
0	-0.40000000000000002	0	0
6.5	-0.40000000000000002	0	0
9	12.5	0	0
9.25	12.5	0	0
10	12.5	0	0
10.25	12.5	0	0
9	-9	0	0
9.25	-9	0	0
10	-9	0	0
10.25	-9	0	0
[NumSegments] = 38
1	5	-1	0	0	0
0	26	-1	0	0	0
26	6	-1	0	0	0
5	0	-1	0	0	0
6	2	-1	0	0	0
5	4	-1	0	0	0
4	11	-1	0	0	0
7	6	-1	0	0	0
3	8	-1	0	0	0
8	12	-1	0	0	0
9	10	-1	0	0	0
9	27	-1	0	0	0
27	13	-1	0	0	0
11	7	-1	0	0	0
12	10	-1	0	0	0
13	3	-1	0	0	0
0	13	-1	0	0	0
12	11	-1	0	0	0
14	15	-1	0	0	0
14	16	-1	0	0	0
15	17	-1	0	0	0
19	28	-1	0	0	1
20	21	-1	0	0	1
21	35	-1	0	0	1
18	19	-1	0	0	1
24	22	-1	0	0	2
23	25	-1	0	0	2
25	24	-1	0	0	2
22	23	-1	0	0	2
26	27	-1	0	0	0
29	30	-1	0	0	1
31	20	-1	0	0	1
32	18	-1	0	0	1
34	33	-1	0	0	1
28	32	-1	0	0	0
33	29	-1	0	0	0
30	34	-1	0	0	0
35	31	-1	0	0	0
[NumArcSegments] = 1
2	1	180	1	0	0	0	1
[NumHoles] = 0
[NumBlockLabels] = 9
3	16	3	-1	0	0	0	1	0
3	-17.5	3	-1	0	0	0	1	0
27	5.5	4	-1	0	0	0	1	0
11	13.5	4	-1	0	0	0	1	0
9.5	-3	7	-1	1	0	1	8	0
12	5	8	-1	2	0	2	6	0
2	0	4	-1	0	0	0	1	0
8.5	-5	7	-1	1	0	1	8	0
10.5	2.5	7	-1	1	0	1	8	0
