[Format]      =  4.0
[Frequency]   =  100000
[Precision]   =  1e-008
[MinAngle]    =  30
[DoSmartMesh] =  1
[Depth]       =  7.8499999999999996
[LengthUnits] =  millimeters
[ProblemType] =  planar
[Coordinates] =  cartesian
[ACSolver]    =  0
[PrevType]    =  0
[PrevSoln]    =  ""
[Comment]     =  "Add comments here."
[PointProps]   = 0
[BdryProps]   = 1
  <BeginBdry>
    <BdryName> = "BC1"
    <BdryType> = 2
    <A_0> = 0
    <A_1> = 0
    <A_2> = 0
    <Phi> = 0
    <c0> = 7957747.154594765
    <c0i> = 0
    <c1> = 0
    <c1i> = 0
    <Mu_ssd> = 0
    <Sigma_ssd> = 0
    <innerangle> = 0
    <outerangle> = 0
  <EndBdry>
[BlockProps]  = 4
  <BeginBlock>
    <BlockName> = "Core"
    <Mu_x> = 2000
    <Mu_y> = 2000
    <H_c> = 0
    <H_cAngle> = 0
    <J_re> = 0
    <J_im> = 0
    <Sigma> = 0
    <d_lam> = 0
    <Phi_h> = 0
    <Phi_hx> = 0
    <Phi_hy> = 0
    <LamType> = 0
    <LamFill> = 1
    <NStrands> = 0
    <WireD> = 0
    <BHPoints> = 0
  <EndBlock>
  <BeginBlock>
    <BlockName> = "PRI"
    <Mu_x> = 1
    <Mu_y> = 1
    <H_c> = 0
    <H_cAngle> = 0
    <J_re> = 0
    <J_im> = 0
    <Sigma> = 60
    <d_lam> = 0
    <Phi_h> = 0
    <Phi_hx> = 0
    <Phi_hy> = 0
    <LamType> = 4
    <LamFill> = 1
    <NStrands> = 2
    <WireD> = 0.59999999999999998
    <BHPoints> = 0
  <EndBlock>
  <BeginBlock>
    <BlockName> = "SEC"
    <Mu_x> = 1
    <Mu_y> = 1
    <H_c> = 0
    <H_cAngle> = 0
    <J_re> = 0
    <J_im> = 0
    <Sigma> = 60
    <d_lam> = 0
    <Phi_h> = 0
    <Phi_hx> = 0
    <Phi_hy> = 0
    <LamType> = 4
    <LamFill> = 1
    <NStrands> = 11
    <WireD> = 0.10000000000000001
    <BHPoints> = 0
  <EndBlock>
  <BeginBlock>
    <BlockName> = "Air"
    <Mu_x> = 1
    <Mu_y> = 1
    <H_c> = 0
    <H_cAngle> = 0
    <J_re> = 0
    <J_im> = 0
    <Sigma> = 0
    <d_lam> = 0
    <Phi_h> = 0
    <Phi_hx> = 0
    <Phi_hy> = 0
    <LamType> = 0
    <LamFill> = 1
    <NStrands> = 0
    <WireD> = 0
    <BHPoints> = 0
  <EndBlock>
[CircuitProps]  = 3
  <BeginCircuit>
    <CircuitName> = "PRI"
    <TotalAmps_re> = 1
    <TotalAmps_im> = 0
    <CircuitType> = 1
  <EndCircuit>
  <BeginCircuit>
    <CircuitName> = "SEC1"
    <TotalAmps_re> = 0
    <TotalAmps_im> = 0
    <CircuitType> = 1
  <EndCircuit>
  <BeginCircuit>
    <CircuitName> = "SEC2"
    <TotalAmps_re> = 0
    <TotalAmps_im> = 0
    <CircuitType> = 1
  <EndCircuit>
[NumPoints] = 101
0	100	0	0
0	-100	0	0
0	0	0	0
0	14	0	0
0	-14	0	0
0	9.75	0	0
0	-9.75	0	0
14.300000000000001	14	0	0
14.300000000000001	-14	0	0
9.3000000000000007	9.75	0	0
5	9.75	0	0
5	-9.75	0	0
9.3000000000000007	-9.75	0	0
6	8	0	0
6	-8	0	0
8.9000000000000004	8	0	0
8.9000000000000004	-8	0	0
6	-4	0	0
7.1500000000000004	7.75	0	0
7.75	7.75	0	0
7.1500000000000004	-7.75	0	0
7.75	-7.75	0	0
6.0500000000000007	-3.75	0	0
6.1500000000000012	-3.75	0	0
6.0500000000000007	7.75	0	0
6.1500000000000012	7.75	0	0
6.2000000000000002	7.75	0	0
6.3000000000000007	7.75	0	0
6.3000000000000007	-3.75	0	0
6.2000000000000002	-3.75	0	0
8.6000000000000014	7.75	0	0
8.7000000000000011	7.75	0	0
8.7000000000000011	-3.75	0	0
8.6000000000000014	-3.75	0	0
8.75	7.75	0	0
8.8499999999999996	7.75	0	0
8.8499999999999996	-3.75	0	0
8.75	-3.75	0	0
5	0	0	0
14.300000000000001	0	0	0
9.3000000000000007	0	0	0
0	0.23000000000000001	0	0
5	0.23000000000000001	0	0
9.3000000000000007	0.22500000000000001	0	0
14.300000000000001	0.22500000000000001	0	0
0	-0.23000000000000001	0	0
5	-0.23000000000000001	0	0
9.3000000000000007	-0.22500000000000001	0	0
14.300000000000001	-0.22500000000000001	0	0
7	-4	0	0
7	-8	0	0
7.9000000000000004	-8	0	0
8.9499999999999993	-8	0	0
7.9000000000000004	-4	0	0
8.9499999999999993	-4	0	0
-14.300000000000001	14	0	0
-14.300000000000001	-14	0	0
-9.3000000000000007	9.75	0	0
-5	9.75	0	0
-5	-9.75	0	0
-9.3000000000000007	-9.75	0	0
-6	8	0	0
-6	-8	0	0
-8.9000000000000004	8	0	0
-8.9000000000000004	-8	0	0
-6	-4	0	0
-7.1500000000000004	7.75	0	0
-7.75	7.75	0	0
-7.1500000000000004	-7.75	0	0
-7.75	-7.75	0	0
-6.0500000000000007	-3.75	0	0
-6.1500000000000012	-3.75	0	0
-6.0500000000000007	7.75	0	0
-6.1500000000000012	7.75	0	0
-6.2000000000000002	7.75	0	0
-6.3000000000000007	7.75	0	0
-6.3000000000000007	-3.75	0	0
-6.2000000000000002	-3.75	0	0
-8.6000000000000014	7.75	0	0
-8.7000000000000011	7.75	0	0
-8.7000000000000011	-3.75	0	0
-8.6000000000000014	-3.75	0	0
-8.75	7.75	0	0
-8.8499999999999996	7.75	0	0
-8.8499999999999996	-3.75	0	0
-8.75	-3.75	0	0
-5	0	0	0
-14.300000000000001	0	0	0
-9.3000000000000007	0	0	0
-5	0.23000000000000043	0	0
-9.3000000000000007	0.22499999999999964	0	0
-14.300000000000001	0.22499999999999964	0	0
-5	-0.23000000000000043	0	0
-9.3000000000000007	-0.22499999999999964	0	0
-14.300000000000001	-0.22499999999999964	0	0
-7	-4	0	0
-7	-8	0	0
-7.9000000000000004	-8	0	0
-8.9499999999999993	-8	0	0
-7.9000000000000004	-4	0	0
-8.9499999999999993	-4	0	0
[NumSegments] = 108
3	7	-1	0	0	0
7	44	-1	0	0	0
44	39	-1	0	0	0
8	4	-1	0	0	0
10	9	-1	0	0	0
10	42	-1	0	0	0
42	38	-1	0	0	0
11	12	-1	0	0	0
12	47	-1	0	0	0
47	40	-1	0	0	0
14	50	-1	0	0	0
14	17	-1	0	0	0
17	13	-1	0	0	0
18	19	-1	0	0	0
19	21	-1	0	0	0
24	25	-1	0	0	0
23	22	-1	0	0	0
24	22	-1	0	0	0
26	27	-1	0	0	0
28	29	-1	0	0	0
28	27	-1	0	0	0
30	31	-1	0	0	0
32	33	-1	0	0	0
30	33	-1	0	0	0
34	35	-1	0	0	0
36	37	-1	0	0	0
36	35	-1	0	0	0
38	46	-1	0	0	0
46	11	-1	0	0	0
39	48	-1	0	0	0
48	8	-1	0	0	0
40	43	-1	0	0	0
43	9	-1	0	0	0
41	42	-1	0	0	0
43	44	-1	0	0	0
45	46	-1	0	0	0
47	48	-1	0	0	0
5	10	-1	0	0	0
6	11	-1	0	0	0
20	21	-1	0	0	0
17	49	-1	0	0	0
49	50	-1	0	0	0
18	20	-1	0	0	0
50	51	-1	0	0	0
51	16	-1	0	0	0
16	52	-1	0	0	0
13	15	-1	0	0	0
51	53	-1	0	0	0
53	54	-1	0	0	0
54	52	-1	0	0	0
25	26	-1	0	0	0
31	34	-1	0	0	0
23	29	-1	0	0	0
32	37	-1	0	0	0
3	55	-1	0	0	0
55	91	-1	0	0	0
91	87	-1	0	0	0
56	4	-1	0	0	0
58	57	-1	0	0	0
58	89	-1	0	0	0
89	86	-1	0	0	0
59	60	-1	0	0	0
60	93	-1	0	0	0
93	88	-1	0	0	0
62	96	-1	0	0	0
62	65	-1	0	0	0
65	61	-1	0	0	0
66	67	-1	0	0	0
67	69	-1	0	0	0
72	73	-1	0	0	0
71	70	-1	0	0	0
72	70	-1	0	0	0
74	75	-1	0	0	0
76	77	-1	0	0	0
76	75	-1	0	0	0
78	79	-1	0	0	0
80	81	-1	0	0	0
78	81	-1	0	0	0
82	83	-1	0	0	0
84	85	-1	0	0	0
84	83	-1	0	0	0
86	92	-1	0	0	0
92	59	-1	0	0	0
87	94	-1	0	0	0
94	56	-1	0	0	0
88	90	-1	0	0	0
90	57	-1	0	0	0
41	89	-1	0	0	0
90	91	-1	0	0	0
45	92	-1	0	0	0
93	94	-1	0	0	0
5	58	-1	0	0	0
6	59	-1	0	0	0
68	69	-1	0	0	0
65	95	-1	0	0	0
95	96	-1	0	0	0
66	68	-1	0	0	0
96	97	-1	0	0	0
97	64	-1	0	0	0
64	98	-1	0	0	0
61	63	-1	0	0	0
97	99	-1	0	0	0
99	100	-1	0	0	0
100	98	-1	0	0	0
73	74	-1	0	0	0
79	82	-1	0	0	0
71	77	-1	0	0	0
80	85	-1	0	0	0
[NumArcSegments] = 2
1	0	180	1	1	0	0	1
0	1	180	1	1	0	0	1
[NumHoles] = 0
[NumBlockLabels] = 20
6.75	-5.75	4	-1	0	0	0	1	0
9.25	-5.5	4	-1	0	0	0	1	0
6.1000000000000005	-1	3	-1	2	0	0	20	0
8.6500000000000004	-1.25	3	-1	3	0	0	20	0
12.5	18	4	-1	0	0	0	1	0
3.5	0	4	-1	0	0	0	1	0
3.5	-2	1	-1	0	0	0	1	0
7.5800000000000001	-4.5999999999999996	2	-1	1	0	0	10	0
11.42	0.01	4	-1	0	0	0	1	0
3	10.6	1	-1	0	0	0	1	0
2	5	1	-1	0	0	0	1	0
4	-10	1	-1	0	0	0	1	0
8.5	-6	4	-1	0	0	0	1	0
-6.75	-5.75	4	-1	0	-180	0	1	0
-9.25	-5.5	4	-1	0	-180	0	1	0
-6.1000000000000005	-1	3	-1	2	-180	0	-20	0
-8.6500000000000004	-1.25	3	-1	3	-180	0	-20	0
-7.5800000000000001	-4.5999999999999996	2	-1	1	-180	0	-10	0
-11.42	0.0099999999999997868	4	-1	0	-180	0	1	0
-8.5	-6	4	-1	0	-180	0	1	0
