[Format]      =  4.0
[Frequency]   =  100000
[Precision]   =  1e-008
[MinAngle]    =  30
[DoSmartMesh] =  1
[Depth]       =  1
[LengthUnits] =  millimeters
[ProblemType] =  axisymmetric
[Coordinates] =  cartesian
[ACSolver]    =  0
[PrevType]    =  0
[PrevSoln]    =  ""
[Comment]     =  "Add comments here."
[PointProps]   = 0
[BdryProps]   = 1
  <BeginBdry>
    <BdryName> = "BC1"
    <BdryType> = 2
    <A_0> = 0
    <A_1> = 0
    <A_2> = 0
    <Phi> = 0
    <c0> = 7957747.154594765
    <c0i> = 0
    <c1> = 0
    <c1i> = 0
    <Mu_ssd> = 0
    <Sigma_ssd> = 0
    <innerangle> = 0
    <outerangle> = 0
  <EndBdry>
[BlockProps]  = 4
  <BeginBlock>
    <BlockName> = "Core"
    <Mu_x> = 2000
    <Mu_y> = 2000
    <H_c> = 0
    <H_cAngle> = 0
    <J_re> = 0
    <J_im> = 0
    <Sigma> = 0
    <d_lam> = 0
    <Phi_h> = 0
    <Phi_hx> = 0
    <Phi_hy> = 0
    <LamType> = 0
    <LamFill> = 1
    <NStrands> = 0
    <WireD> = 0
    <BHPoints> = 0
  <EndBlock>
  <BeginBlock>
    <BlockName> = "PRI"
    <Mu_x> = 1
    <Mu_y> = 1
    <H_c> = 0
    <H_cAngle> = 0
    <J_re> = 0
    <J_im> = 0
    <Sigma> = 36
    <d_lam> = 0
    <Phi_h> = 0
    <Phi_hx> = 0
    <Phi_hy> = 0
    <LamType> = 0
    <LamFill> = 1
    <NStrands> = 2
    <WireD> = 0.59999999999999998
    <BHPoints> = 0
  <EndBlock>
  <BeginBlock>
    <BlockName> = "SEC"
    <Mu_x> = 1
    <Mu_y> = 1
    <H_c> = 0
    <H_cAngle> = 0
    <J_re> = 0
    <J_im> = 0
    <Sigma> = 36
    <d_lam> = 0
    <Phi_h> = 0
    <Phi_hx> = 0
    <Phi_hy> = 0
    <LamType> = 0
    <LamFill> = 1
    <NStrands> = 11
    <WireD> = 0.10000000000000001
    <BHPoints> = 0
  <EndBlock>
  <BeginBlock>
    <BlockName> = "Air"
    <Mu_x> = 1
    <Mu_y> = 1
    <H_c> = 0
    <H_cAngle> = 0
    <J_re> = 0
    <J_im> = 0
    <Sigma> = 0
    <d_lam> = 0
    <Phi_h> = 0
    <Phi_hx> = 0
    <Phi_hy> = 0
    <LamType> = 0
    <LamFill> = 1
    <NStrands> = 0
    <WireD> = 0
    <BHPoints> = 0
  <EndBlock>
[CircuitProps]  = 3
  <BeginCircuit>
    <CircuitName> = "PRI"
    <TotalAmps_re> = 1
    <TotalAmps_im> = 0
    <CircuitType> = 1
  <EndCircuit>
  <BeginCircuit>
    <CircuitName> = "SEC1"
    <TotalAmps_re> = -0.25155499200560244
    <TotalAmps_im> = 0
    <CircuitType> = 1
  <EndCircuit>
  <BeginCircuit>
    <CircuitName> = "SEC2"
    <TotalAmps_re> = -0.24980398294669881
    <TotalAmps_im> = 0
    <CircuitType> = 1
  <EndCircuit>
[NumPoints] = 55
0	100	0	0
0	-100	0	0
0	0	0	0
0	11	0	0
0	-11	0	0
0	9.75	0	0
0	-9.75	0	0
11.800000000000001	11	0	0
11.800000000000001	-11	0	0
10.9	9.75	0	0
5	9.75	0	0
5	-9.75	0	0
10.9	-9.75	0	0
6	8	0	0
6	-8	0	0
10.5	8	0	0
10.5	-8	0	0
6	-4	0	0
7.1500000000000004	7.75	0	0
7.75	7.75	0	0
7.1500000000000004	-7.75	0	0
7.75	-7.75	0	0
6.0500000000000007	-3.75	0	0
6.1500000000000012	-3.75	0	0
6.0500000000000007	7.75	0	0
6.1500000000000012	7.75	0	0
6.2000000000000002	7.75	0	0
6.3000000000000007	7.75	0	0
6.3000000000000007	-3.75	0	0
6.2000000000000002	-3.75	0	0
8.6000000000000014	7.75	0	0
8.7000000000000011	7.75	0	0
8.7000000000000011	-3.75	0	0
8.6000000000000014	-3.75	0	0
8.75	7.75	0	0
8.8499999999999996	7.75	0	0
8.8499999999999996	-3.75	0	0
8.75	-3.75	0	0
5	0	0	0
11.800000000000001	0	0	0
10.9	0	0	0
0	0.23000000000000001	0	0
5	0.23000000000000001	0	0
10.9	0.22500000000000001	0	0
11.800000000000001	0.22500000000000001	0	0
0	-0.23000000000000001	0	0
5	-0.23000000000000001	0	0
10.9	-0.22500000000000001	0	0
11.800000000000001	-0.22500000000000001	0	0
7	-4	0	0
7	-8	0	0
7.9000000000000004	-8	0	0
8.9499999999999993	-8	0	0
7.9000000000000004	-4	0	0
8.9499999999999993	-4	0	0
[NumSegments] = 62
0	3	-1	0	0	0
2	45	-1	0	0	0
45	6	-1	0	0	0
3	5	-1	0	0	0
4	1	-1	0	0	0
5	41	-1	0	0	0
41	2	-1	0	0	0
6	4	-1	0	0	0
3	7	-1	0	0	0
7	44	-1	0	0	0
44	39	-1	0	0	0
8	4	-1	0	0	0
10	9	-1	0	0	0
10	42	-1	0	0	0
42	38	-1	0	0	0
11	12	-1	0	0	0
12	47	-1	0	0	0
47	40	-1	0	0	0
14	50	-1	0	0	0
14	17	-1	0	0	0
17	13	-1	0	0	0
18	19	-1	0	0	0
19	21	-1	0	0	0
24	25	-1	0	0	0
23	22	-1	0	0	0
24	22	-1	0	0	0
26	27	-1	0	0	0
28	29	-1	0	0	0
28	27	-1	0	0	0
30	31	-1	0	0	0
32	33	-1	0	0	0
30	33	-1	0	0	0
34	35	-1	0	0	0
36	37	-1	0	0	0
36	35	-1	0	0	0
38	46	-1	0	0	0
46	11	-1	0	0	0
39	48	-1	0	0	0
48	8	-1	0	0	0
40	43	-1	0	0	0
43	9	-1	0	0	0
41	42	-1	0	0	0
43	44	-1	0	0	0
45	46	-1	0	0	0
47	48	-1	0	0	0
5	10	-1	0	0	0
6	11	-1	0	0	0
20	21	-1	0	0	0
17	49	-1	0	0	0
49	50	-1	0	0	0
18	20	-1	0	0	0
50	51	-1	0	0	0
51	52	-1	0	0	0
52	16	-1	0	0	0
13	15	-1	0	0	0
51	53	-1	0	0	0
53	54	-1	0	0	0
54	52	-1	0	0	0
25	26	-1	0	0	0
31	34	-1	0	0	0
23	29	-1	0	0	0
32	37	-1	0	0	0
[NumArcSegments] = 1
1	0	180	1	1	0	0	1
[NumHoles] = 0
[NumBlockLabels] = 13
6.75	-5.75	4	0.10000000000000001	0	0	0	1	0
9.25	-5.5	4	0.10000000000000001	0	0	0	1	0
6.1000000000000005	1	3	0.14999999999999999	2	0	0	20	0
8.6500000000000004	-1.25	3	0.10000000000000001	3	0	0	20	0
12.5	18	4	-1	0	0	0	1	0
3.5	0	4	-1	0	0	0	1	0
3.5	-2	1	-1	0	0	0	1	0
7.5800000000000001	-4.5999999999999996	2	0.10000000000000001	1	0	0	10	0
11.42	0.01	4	-1	0	0	0	1	0
3	10.6	1	-1	0	0	0	1	0
2	5	1	-1	0	0	0	1	0
4	-10	1	-1	0	0	0	1	0
8.5	-6	4	0.10000000000000001	0	0	0	1	0
